OceanMesh2D 
Run_001
1 100 0 100 1000         	 ! NFOVER 
0         	 ! NABOUT 
1000        	 ! NSCREEN 
0        	 ! IHOT 
2        	 ! ICS 
511112        	 ! IM 
1        	 ! NOLIBF 
2        	 ! NOLIFA 
1        	 ! NOLICA 
1        	 ! NOLICAT 
0        	 ! NWP 
1   	 	 ! NCOR 
1   	 	 ! NTIP 
0   	 	 ! NWS 
0   	 	 ! NRAMP 
9.810000   	 ! G  
-1   	 	 ! TAU0 
2.0  	 	 ! DTDP 
0  	 	 ! STATIM 
0  	 	 ! REFTIM 
9.0   	 	 ! RNDY 
0  	 	 ! DRAMP 
0 1 0  	 ! A00, B00, C00 
0.1 0 0 0.01    	 ! H0, 2*dummy, VELMIN 
-75.590869 25.259577  	 	 ! SLAM0, SFEA0 
0.002500     	 ! CF 
-0.050000     	 ! ELSM 
0.000000   	 ! CORI 
8   	 	 ! NTIF 
Q1 
0.019303  6.495854130e-05 0.695000 1.145293 2.544956   	 !  TPK, AMIGT, ETRF, FFT, FACET 
O1 
0.100818  6.759774407e-05 0.695000 1.151106 153.725762   	 !  TPK, AMIGT, ETRF, FFT, FACET 
P1 
0.047037  7.252294576e-05 0.706000 0.993914 285.403642   	 !  TPK, AMIGT, ETRF, FFT, FACET 
K1 
0.141909  7.292115851e-05 0.736000 1.089154 80.402964   	 !  TPK, AMIGT, ETRF, FFT, FACET 
N2 
0.046510  1.378796998e-04 0.693000 0.974235 85.208263   	 !  TPK, AMIGT, ETRF, FFT, FACET 
M2 
0.242922  1.405189028e-04 0.693000 0.972945 236.428564   	 !  TPK, AMIGT, ETRF, FFT, FACET 
S2 
0.113308  1.454441043e-04 0.693000 1.001627 359.915172   	 !  TPK, AMIGT, ETRF, FFT, FACET 
K2 
0.030779  1.458423170e-04 0.693000 1.232074 341.336022   	 !  TPK, AMIGT, ETRF, FFT, FACET 
8   	 	 ! NBFR 
Q1  
 6.495854130e-05 1.145293 2.544956 
O1  
 6.759774407e-05 1.151106 153.725762 
P1  
 7.252294576e-05 0.993914 285.403642 
K1  
 7.292115851e-05 1.089154 80.402964 
N2  
 1.378796998e-04 0.974235 85.208263 
M2  
 1.405189028e-04 0.972945 236.428564 
S2  
 1.454441043e-04 1.001627 359.915172 
K2  
 1.458423170e-04 1.232074 341.336022 
Q1 
 7.315474277e-03      279.4447114 
 6.898013035e-03      278.6972881 
 6.542278603e-03      278.0433945 
 6.050709050e-03      277.0816619 
 4.864074797e-03      272.2141736 
 4.186453486e-03      267.2912889 
 3.615239860e-03      260.5786604 
 3.129709288e-03      250.2084681 
 2.842521036e-03      238.7493187 
 2.718641237e-03      226.6572171 
 2.730885624e-03      208.2640596 
 2.883762221e-03      196.4928554 
 3.089100821e-03      188.1047167 
 3.659959194e-03      176.9422226 
 4.108615175e-03      171.7368906 
 4.688095100e-03      166.9567374 
 5.265581852e-03      164.4836501 
 6.009638052e-03      162.4903514 
 7.095277998e-03      161.7684017 
 8.221479680e-03      161.0996521 
 9.813099080e-03      160.3741332 
 1.020679635e-02      161.0263353 
 1.049273199e-02      161.5614922 
 1.056818361e-02      161.9526525 
 1.059359720e-02      162.1455866 
 1.060297582e-02      162.2913083 
 1.059890161e-02      162.3741048 
 1.059262555e-02      162.4675433 
 1.058482772e-02      162.5471304 
 1.057470117e-02      162.6331994 
 1.055638253e-02      162.7814376 
 1.054296308e-02      162.8855447 
 1.052825634e-02      162.9927979 
 1.051355705e-02      163.0983516 
 1.049780233e-02      163.2078569 
 1.048207672e-02      163.3149466 
 1.046744817e-02      163.4135703 
 1.045071930e-02      163.5247037 
 1.043282683e-02       163.643586 
 1.039602341e-02      163.8800997 
 1.037243569e-02      164.0326736 
 1.035273380e-02      164.1717847 
 1.030938959e-02      164.4521479 
 1.028486326e-02       164.599169 
 1.025083387e-02      164.8239724 
 1.022931278e-02       164.970485 
 1.020931659e-02      165.1069005 
 1.018154766e-02      165.3002927 
 1.016426730e-02      165.4243172 
 1.014510298e-02       165.564595 
 1.011515596e-02      165.7893233 
 1.009694554e-02      165.9303621 
 1.007858514e-02      166.0750607 
 1.004790130e-02      166.3307972 
 1.003171875e-02      166.4670228 
 1.001541846e-02      166.6089905 
 9.999404774e-03      166.7529756 
 9.981599013e-03      166.9187782 
 9.963472746e-03      167.0930502 
 9.947797465e-03      167.2485739 
 9.934664321e-03      167.3824427 
 9.920329405e-03      167.5337843 
 9.905491280e-03      167.6930975 
 9.890543412e-03      167.8618462 
 9.877238079e-03      168.0169931 
 9.864855984e-03      168.1626206 
 9.852681611e-03       168.304453 
 9.830243294e-03      168.5805743 
 9.815586362e-03      168.7698156 
 9.792916082e-03      169.0750581 
 9.780817787e-03      169.2430686 
 9.764982088e-03       169.465125 
 9.757386047e-03      169.6203699 
 9.732470000e-03      169.9369024 
 9.713332070e-03      170.2348058 
 9.700635800e-03      170.4476738 
 9.691054937e-03      170.6235448 
 9.681294210e-03      170.8114601 
 9.672564509e-03      170.9900159 
 9.658485907e-03      171.2836715 
 9.642170166e-03      171.6352671 
 9.635100110e-03      171.7986013 
 9.628483080e-03      171.9559606 
 9.622269562e-03      172.1132221 
 9.615832277e-03      172.2883142 
 9.610157996e-03      172.4484288 
 9.604376549e-03      172.6172998 
 9.597638729e-03      172.8290696 
 9.587545596e-03      173.1779201 
 9.582687371e-03      173.3572178 
 9.577976433e-03      173.5362249 
 9.573963368e-03      173.7070606 
 9.572416593e-03      173.8951176 
 9.566056181e-03      174.0691501 
 9.559823712e-03      174.3866779 
 9.556544144e-03      174.5670813 
 9.553749652e-03      174.7403311 
 9.551005271e-03      174.9220662 
 9.548563415e-03      175.0938952 
 9.546204901e-03      175.2852462 
 9.544183659e-03      175.4671837 
 9.542483159e-03      175.6488562 
 9.540397912e-03      175.9280573 
 9.539521359e-03       176.111703 
 9.538766733e-03      176.2852481 
 9.538103387e-03      176.4593715 
 9.537989414e-03      176.6267734 
 9.537998257e-03      176.7850576 
 9.538040035e-03      176.9507771 
 9.538191123e-03      177.1250501 
 9.539732416e-03      177.4783275 
 9.540734431e-03        177.67023 
 9.541922782e-03      177.8628497 
 9.545090774e-03      178.2311055 
 9.546687905e-03      178.4049156 
 9.550344244e-03      178.7033537 
 9.554601104e-03      179.0105784 
 9.557587190e-03      179.1947558 
 9.560428275e-03      179.3615965 
 9.563454046e-03      179.5276567 
 9.566334785e-03      179.6846888 
 9.570126274e-03      179.8689412 
 9.573755828e-03      180.0437682 
 9.578913308e-03      180.2716535 
 9.585435954e-03      180.5433533 
 9.589889343e-03      180.7165855 
 9.598619314e-03      181.0394568 
 9.603911217e-03       181.222523 
 9.609615923e-03      181.4142361 
 9.616047500e-03      181.6233879 
 9.627751120e-03      181.9789563 
 9.634983518e-03      182.1883015 
 9.641207691e-03      182.3611347 
 9.648554772e-03      182.5603077 
 9.656175675e-03      182.7606443 
 9.663635156e-03      182.9496668 
 9.675028396e-03      183.2273312 
 9.681572222e-03       183.381332 
 9.688162578e-03      183.5357008 
 9.698853705e-03      183.7777867 
 9.712629092e-03      184.0767877 
 9.726988538e-03      184.3766324 
 9.742720586e-03      184.6928496 
 9.752308504e-03      184.8800085 
 9.762091486e-03      185.0671253 
 9.772044953e-03      185.2531165 
 9.788365507e-03       185.549883 
 9.801259823e-03      185.7777347 
 9.816192394e-03      185.9544786 
 9.822793789e-03      186.1477313 
 9.841443549e-03      186.4568946 
 9.857727497e-03      186.7170113 
 9.869380415e-03      186.9000702 
 9.881387062e-03       187.081933 
 9.893722800e-03       187.273399 
 9.912672915e-03      187.5553346 
 9.924582105e-03       187.728533 
 9.935521195e-03      187.8839982 
 9.946531765e-03      188.0399262 
 9.958908538e-03      188.2124231 
 9.972699848e-03      188.4005262 
 9.993312610e-03       188.676881 
 1.000501115e-02      188.8315773 
 1.001813183e-02       189.001647 
 1.004226767e-02      189.3085226 
 1.006232756e-02      189.5583544 
 1.007665611e-02      189.7329136 
 1.009707058e-02      189.9806235 
 1.011201910e-02      190.1562547 
 1.012496083e-02      190.3064864 
 1.013997561e-02      190.4809849 
 1.016715164e-02      190.7888406 
 1.019260310e-02      191.0703487 
 1.021700894e-02       191.335506 
 1.023634422e-02      191.4800115 
 1.024765099e-02      191.6615924 
 1.026391322e-02      191.8315804 
 1.027957979e-02      191.9925693 
 1.029458713e-02      192.1456946 
 1.031901383e-02      192.3915249 
 1.033595970e-02      192.5589046 
 1.035222125e-02      192.7183673 
 1.036696867e-02      192.8617294 
 1.038185490e-02      193.0049533 
 1.039767946e-02        193.15524 
 1.041444231e-02      193.3129056 
 1.043214787e-02       193.477972 
 1.046290279e-02      193.7602155 
 1.047932182e-02      193.9087597 
 1.049567242e-02      194.0557212 
 1.051301656e-02       194.206901 
 1.053082889e-02      194.3647269 
 1.056631781e-02      194.6650191 
 1.058501771e-02      194.8309292 
 1.060214702e-02       194.975527 
 1.063588482e-02      195.2565327 
 1.065413677e-02       195.406543 
 1.067433576e-02      195.5709058 
 1.069470273e-02      195.7349362 
 1.071513651e-02      195.8974971 
 1.074089665e-02      196.1021092 
 1.076449550e-02      196.2849049 
 1.078254701e-02      196.4236269 
 1.080262763e-02      196.5776339 
 1.082093327e-02      196.7169435 
 1.083929893e-02      196.8543179 
 1.086793182e-02      197.0678982 
 1.089228276e-02      197.2466195 
 1.091202695e-02       197.389767 
 1.093175224e-02      197.5326338 
 1.095335471e-02      197.6880562 
 1.097436034e-02      197.8369139 
 1.101173456e-02      198.0992558 
 1.103096674e-02      198.2326706 
 1.105013375e-02      198.3618627 
 1.108951600e-02      198.6264931 
 1.111163163e-02      198.7809138 
 1.114022977e-02      198.9714376 
 1.116212202e-02      199.1096522 
 1.120150472e-02      199.3738741 
 1.123864009e-02      199.6125066 
 1.125973118e-02      199.7466692 
 1.130011606e-02      200.0009155 
 1.137056257e-02        200.43596 
 1.140444553e-02      200.6415239 
 1.142628076e-02      200.7719978 
 1.144474212e-02      200.8824999 
 1.148426734e-02      201.1160414 
 1.152599584e-02       201.356946 
 1.155144731e-02      201.5077212 
 1.158181139e-02      201.6814046 
 1.160709640e-02      201.8209437 
 1.163909164e-02      202.0045939 
 1.166092532e-02      202.1252235 
 1.168177177e-02      202.2408956 
 1.170646547e-02       202.376044 
 1.175136907e-02      202.6140096 
 1.177569075e-02      202.7484707 
 1.180846561e-02      202.9214831 
 1.185105044e-02      203.1439218 
 1.187625126e-02      203.2739789 
 1.190621454e-02      203.4241266 
 1.193412285e-02      203.5674346 
 1.196224748e-02      203.7116012 
 1.198546135e-02      203.8281949 
 1.200657453e-02      203.9325835 
 1.202667652e-02      204.0313271 
 1.204751535e-02      204.1358496 
 1.206721364e-02      204.2339934 
 1.209182244e-02      204.3541575 
 1.211397543e-02      204.4621302 
 1.213946531e-02      204.5867596 
 1.216489959e-02      204.7111471 
 1.218908974e-02      204.8289262 
 1.223416915e-02      205.0478307 
 1.228770316e-02      205.3009975 
 1.233732879e-02      205.5317247 
 1.236262034e-02       205.647676 
 1.238860415e-02      205.7647944 
 1.242308604e-02      205.9228513 
 1.244968008e-02      206.0440294 
 1.249192137e-02      206.2358802 
 1.252603087e-02      206.3907786 
 1.255256372e-02      206.5111833 
 1.257616738e-02      206.6141514 
 1.261443629e-02      206.7762602 
 1.263828468e-02      206.8747545 
 1.266266067e-02      206.9727841 
 1.268739196e-02      207.0701003 
 1.271198325e-02      207.1674739 
 1.274949282e-02      207.3165347 
 1.277543678e-02       207.420448 
 1.280142176e-02      207.5250533 
 1.284098614e-02      207.6873315 
 1.286964372e-02      207.8062141 
 1.289353649e-02      207.9051334 
 1.291571679e-02      207.9993939 
 1.294437154e-02      208.1219565 
 1.298961817e-02      208.3166168 
 1.302058745e-02      208.4582724 
 1.304350116e-02      208.5587321 
 1.306772392e-02       208.665148 
 1.309427837e-02      208.7692402 
 1.314452170e-02      208.9555885 
 1.317400762e-02      209.0540525 
 1.320675234e-02      209.1568061 
 1.323725660e-02      209.2321927 
 1.326766386e-02      209.3055968 
 1.330496431e-02      209.3863092 
 1.333896024e-02      209.4553953 
 1.336864545e-02      209.5143442 
 1.339536119e-02      209.5738899 
 1.342987001e-02      209.6285242 
 1.349766407e-02      209.7436198 
 1.353338936e-02      209.8009916 
 1.360332363e-02      209.8975859 
 1.366768249e-02      209.9723797 
 1.371070674e-02      210.0155799 
 1.377257070e-02      210.0763444 
 1.381349275e-02      210.1161037 
 1.385690312e-02      210.1590931 
 1.390137333e-02      210.2046807 
 1.394376366e-02      210.2482624 
 1.398807521e-02      210.2965792 
 1.403252307e-02      210.3461844 
 1.407317825e-02      210.3935403 
 1.411709717e-02      210.4464238 
 1.416373623e-02      210.5043064 
 1.424726168e-02      210.6182311 
 1.432544273e-02       210.738678 
 1.436963406e-02      210.8134891 
 1.442275129e-02      210.9071706 
 1.450142350e-02      211.0569899 
 1.455282366e-02       211.163796 
 1.460495276e-02      211.2740733 
 1.466771638e-02      211.4209122 
 1.473696135e-02      211.6058999 
 1.482007096e-02      211.8460734 
 1.496440194e-02      212.4243445 
 1.504780747e-02      212.8250262 
 1.519510221e-02       213.608999 
 1.533060688e-02      214.5674106 
O1 
 5.879413213e-02      322.4191016 
 5.602635534e-02      322.9436508 
 5.368770851e-02       323.475074 
 5.047694127e-02       324.337047 
 4.200315594e-02      325.9982062 
 3.668569307e-02      326.8870033 
 3.161703339e-02      327.4853432 
 2.607504939e-02      327.3601229 
 2.130485236e-02      326.7108167 
 1.691471679e-02      325.2443148 
 1.039397624e-02      322.0814864 
 5.918946761e-03      316.2487895 
 2.497431348e-03      295.2152774 
 4.827828412e-03      174.4378263 
 8.864051945e-03      166.6136143 
 1.372438646e-02      163.6853762 
 1.796881603e-02      164.5522027 
 2.320919409e-02      165.8441638 
 3.035039376e-02      168.4576494 
 3.769848602e-02      169.3454527 
 4.796219405e-02      169.6003496 
 5.027580708e-02      170.6915904 
 5.196512425e-02      171.5177952 
 5.243483603e-02      171.9958098 
 5.260918253e-02      172.2153683 
 5.268582544e-02      172.3679055 
 5.267253462e-02       172.445659 
 5.263985212e-02      172.5306791 
 5.259196653e-02      172.6001197 
 5.252198381e-02      172.6740754 
 5.238795068e-02      172.8004226 
 5.228632611e-02      172.8882515 
 5.217105926e-02      172.9762286 
 5.205557906e-02       173.061446 
 5.193175012e-02      173.1478068 
 5.180766480e-02      173.2296421 
 5.169190100e-02      173.3034396 
 5.156048792e-02      173.3840269 
 5.142021603e-02      173.4686774 
 5.113458284e-02      173.6305453 
 5.095345788e-02      173.7308465 
 5.079793195e-02      173.8228089 
 5.047145206e-02      174.0003534 
 5.029461045e-02      174.0903864 
 5.004439375e-02      174.2310386 
 4.988707940e-02      174.3233229 
 4.974275668e-02      174.4096761 
 4.954332142e-02      174.5334685 
 4.941940847e-02      174.6138929 
 4.928327403e-02      174.7068807 
 4.907132768e-02      174.8580519 
 4.894255995e-02      174.9544136 
 4.881414759e-02      175.0560406 
 4.859779761e-02      175.2400117 
 4.848503857e-02      175.3399226 
 4.837150018e-02      175.4457359 
 4.825955092e-02      175.5550543 
 4.813419442e-02      175.6826831 
 4.800789784e-02      175.8204087 
 4.789805989e-02      175.9448707 
 4.780565016e-02      176.0532274 
 4.770483758e-02      176.1781688 
 4.760063307e-02      176.3112412 
 4.749491525e-02       176.454583 
 4.740027570e-02      176.5877932 
 4.731298848e-02       176.714764 
 4.722788436e-02      176.8393727 
 4.706959134e-02      177.0861847 
 4.696544732e-02      177.2584513 
 4.680423836e-02      177.5401325 
 4.671838476e-02      177.6980814 
 4.660637614e-02      177.9089698 
 4.654492118e-02      178.0594144 
 4.637678358e-02      178.3662349 
 4.624012108e-02      178.6612224 
 4.614885581e-02      178.8745111 
 4.607787533e-02      179.0523991 
 4.600444641e-02       179.243745 
 4.593743776e-02      179.4271259 
 4.582896107e-02      179.7324182 
 4.570286499e-02      180.1034913 
 4.564701770e-02      180.2777771 
 4.559416599e-02      180.4467252 
 4.554373795e-02      180.6162615 
 4.549032500e-02      180.8057791 
 4.544251633e-02      180.9803861 
 4.539308793e-02      181.1653309 
 4.533452853e-02      181.3988057 
 4.524337886e-02      181.7861894 
 4.519840832e-02      181.9868083 
 4.515442785e-02      182.1881784 
 4.511527279e-02      182.3814614 
 4.508672435e-02      182.5963188 
 4.503589827e-02      182.7937466 
 4.497059932e-02      183.1582701 
 4.493514003e-02      183.3664865 
 4.490296400e-02      183.5677588 
 4.487054022e-02      183.7793726 
 4.484136491e-02      183.9798581 
 4.481077081e-02      184.2042885 
 4.478292058e-02      184.4186343 
 4.475691348e-02      184.6332543 
 4.471977895e-02      184.9648263 
 4.469778939e-02      185.1845065 
 4.467807835e-02       185.392375 
 4.465896007e-02      185.6013373 
 4.464320303e-02       185.803424 
 4.462900924e-02      185.9948831 
 4.461462170e-02      186.1959072 
 4.460025823e-02       186.407698 
 4.457765746e-02      186.8399061 
 4.456689900e-02      187.0752527 
 4.455743858e-02      187.3124637 
 4.454491058e-02      187.7685989 
 4.453975845e-02      187.9845231 
 4.453575715e-02      188.3570838 
 4.453504342e-02      188.7417911 
 4.453732082e-02      188.9733314 
 4.454030227e-02      189.1835484 
 4.454456973e-02      189.3932573 
 4.454890466e-02      189.5918732 
 4.455640798e-02       189.825665 
 4.456401020e-02      190.0478586 
 4.457599255e-02      190.3384597 
 4.459318715e-02      190.6859586 
 4.460609279e-02      190.9081265 
 4.463299902e-02      191.3232069 
 4.465072384e-02      191.5593082 
 4.467033198e-02       191.807074 
 4.469304407e-02      192.0780032 
 4.473651551e-02      192.5398998 
 4.476428710e-02      192.8127572 
 4.478900965e-02      193.0383824 
 4.481898472e-02      193.2986611 
 4.485078669e-02      193.5610754 
 4.488264826e-02       193.809168 
 4.493232189e-02      194.1739621 
 4.496140243e-02      194.3767274 
 4.499099667e-02      194.5801753 
 4.503975038e-02      194.8997553 
 4.510394739e-02       195.295305 
 4.517246082e-02      195.6926409 
 4.524912417e-02      196.1122455 
 4.529651915e-02      196.3609289 
 4.534556933e-02      196.6099381 
 4.539590951e-02      196.8576608 
 4.547945107e-02      197.2533992 
 4.554643467e-02      197.5577011 
 4.562790315e-02      197.7956115 
 4.565944352e-02      198.0523904 
 4.575927000e-02      198.4664507 
 4.584738542e-02       198.814876 
 4.591116335e-02      199.0601418 
 4.597740928e-02      199.3040526 
 4.604568217e-02      199.5607909 
 4.615184294e-02      199.9392105 
 4.621896482e-02      200.1718208 
 4.628092775e-02      200.3807154 
 4.634359310e-02      200.5902209 
 4.641449437e-02      200.8220505 
 4.649411986e-02      201.0748821 
 4.661393508e-02      201.4462572 
 4.668231468e-02      201.6541305 
 4.675935011e-02      201.8825989 
 4.690205125e-02      202.2948828 
 4.702156640e-02      202.6304583 
 4.710738428e-02      202.8649901 
 4.723095838e-02       203.197536 
 4.732151801e-02      203.4331789 
 4.740001001e-02      203.6346882 
 4.749198776e-02      203.8687654 
 4.765913671e-02      204.2813953 
 4.781680252e-02      204.6586107 
 4.796899707e-02      205.0135746 
 4.809170325e-02      205.2061263 
 4.816120605e-02      205.4495609 
 4.826375699e-02      205.6767453 
 4.836290123e-02      205.8918006 
 4.845816794e-02      206.0962905 
 4.861382003e-02      206.4243876 
 4.872211728e-02       206.647509 
 4.882640352e-02      206.8599807 
 4.892127246e-02       207.050906 
 4.901728618e-02      207.2415391 
 4.911964268e-02      207.4414436 
 4.922829701e-02       207.651031 
 4.934337347e-02      207.8703061 
 4.954416052e-02      208.2445459 
 4.965186794e-02      208.4414716 
 4.975928869e-02      208.6361231 
 4.987339473e-02      208.8359499 
 4.999089728e-02      209.0445997 
 5.022626544e-02      209.4405461 
 5.035008925e-02      209.6595852 
 5.046431147e-02      209.8499425 
 5.068970923e-02      210.2194761 
 5.081200652e-02      210.4164689 
 5.094779583e-02      210.6320027 
 5.108483987e-02      210.8468775 
 5.122262485e-02      211.0596234 
 5.139705280e-02      211.3271139 
 5.155674940e-02       211.565683 
 5.167909364e-02       211.746602 
 5.181582969e-02      211.9469533 
 5.194051090e-02      212.1281719 
 5.206568500e-02      212.3067182 
 5.226144490e-02      212.5839162 
 5.242820935e-02       212.815461 
 5.256342194e-02      213.0007344 
 5.269902604e-02      213.1855775 
 5.284770466e-02      213.3865569 
 5.299225232e-02      213.5786662 
 5.325012402e-02       213.916938 
 5.338295510e-02      214.0887805 
 5.351560795e-02      214.2546555 
 5.378882884e-02      214.5942019 
 5.394115674e-02      214.7934737 
 5.413931347e-02      215.0379953 
 5.429233390e-02      215.2140335 
 5.456471265e-02      215.5541126 
 5.482283684e-02      215.8592242 
 5.496918933e-02      216.0306152 
 5.524997340e-02      216.3550547 
 5.573960102e-02      216.9091158 
 5.597493758e-02      217.1707327 
 5.612595670e-02      217.3367808 
 5.625417235e-02      217.4773835 
 5.652792914e-02      217.7748126 
 5.681696193e-02      218.0812845 
 5.699190123e-02      218.2744968 
 5.720061396e-02      218.4960666 
 5.737603052e-02      218.6721775 
 5.759463589e-02      218.9064969 
 5.774475010e-02      219.0590289 
 5.788773410e-02      219.2049877 
 5.805725757e-02      219.3750103 
 5.836671966e-02      219.6708624 
 5.853137861e-02      219.8402217 
 5.875471311e-02      220.0553371 
 5.904442602e-02      220.3313293 
 5.921524883e-02      220.4925295 
 5.941932399e-02      220.6772125 
 5.960711911e-02      220.8551754 
 5.979500918e-02      221.0344083 
 5.995064881e-02      221.1785184 
 6.009176018e-02      221.3068364 
 6.022597836e-02      221.4282165 
 6.036544639e-02      221.5564445 
 6.049713580e-02       221.676804 
 6.066122180e-02      221.8236987 
 6.080878888e-02      221.9556034 
 6.097853096e-02      222.1075468 
 6.114801367e-02      222.2590151 
 6.130923621e-02       222.402265 
 6.160869798e-02       222.667705 
 6.196406114e-02      222.9719394 
 6.229400187e-02      223.2452636 
 6.246205955e-02      223.3814829 
 6.263469233e-02      223.5181987 
 6.286505140e-02      223.7023513 
 6.304319111e-02      223.8433648 
 6.332749317e-02      224.0662603 
 6.356268103e-02      224.2430497 
 6.373875845e-02      224.3835147 
 6.389852612e-02      224.5003345 
 6.415706236e-02      224.6822244 
 6.431786024e-02      224.7915084 
 6.448167387e-02      224.8992327 
 6.464754285e-02      225.0054408 
 6.481277070e-02      225.1111839 
 6.506599544e-02      225.2719683 
 6.524213522e-02      225.3834035 
 6.542006111e-02      225.4956371 
 6.569384704e-02      225.6689601 
 6.589471193e-02      225.7954935 
 6.606356250e-02      225.9008984 
 6.622266057e-02      226.0012124 
 6.642969379e-02       226.131574 
 6.675973368e-02      226.3391877 
 6.698997881e-02      226.4914781 
 6.715739734e-02      226.5997199 
 6.733520640e-02      226.7138334 
 6.752267469e-02      226.8246292 
 6.787325351e-02      227.0190709 
 6.807261594e-02      227.1198548 
 6.828986615e-02      227.2239682 
 6.848000500e-02      227.3018893 
 6.866905588e-02      227.3778872 
 6.889570755e-02      227.4630627 
 6.910075032e-02      227.5363747 
 6.927996968e-02      227.5986847 
 6.945753067e-02      227.6541815 
 6.964506780e-02      227.7201028 
 7.004296138e-02      227.8428889 
 7.024979565e-02      227.9049457 
 7.064198552e-02      228.0141374 
 7.098624119e-02       228.105841 
 7.121077782e-02        228.16081 
 7.153026846e-02       228.237561 
 7.173951700e-02      228.2867835 
 7.196069678e-02      228.3378304 
 7.218613040e-02      228.3896011 
 7.240170695e-02      228.4375337 
 7.262163290e-02      228.4894019 
 7.284300674e-02      228.5409912 
 7.304485208e-02      228.5888469 
 7.326239060e-02      228.6409252 
 7.349318623e-02      228.6966531 
 7.390847911e-02      228.8024367 
 7.430048921e-02      228.9100786 
 7.452597879e-02      228.9751242 
 7.479814055e-02      229.0558126 
 7.520752359e-02      229.1836846 
 7.547954125e-02       229.276291 
 7.575546107e-02      229.3717879 
 7.609062164e-02      229.5021849 
 7.646484451e-02      229.6698391 
 7.691850069e-02      229.8898569 
 7.773077120e-02      230.4413857 
 7.820534071e-02      230.8325608 
 7.904670217e-02      231.6091275 
 7.981820122e-02      232.5813198 
P1 
 1.986977239e-02      31.08755585 
 1.912288928e-02      33.78837645 
 1.854170256e-02      36.28239407 
 1.782186610e-02      40.00806578 
 1.598985393e-02      50.08359333 
 1.503246506e-02      57.05010471 
 1.427133900e-02      64.08900654 
 1.355557237e-02      71.94130393 
 1.309660729e-02      79.04589714 
 1.278975595e-02      85.74157678 
 1.271733358e-02      95.91468531 
 1.289252537e-02      102.7775245 
 1.314322182e-02      108.1279524 
 1.364146635e-02      117.1280339 
 1.406341213e-02      122.5936625 
 1.469043926e-02      128.6658664 
 1.517446250e-02      133.8992568 
 1.583310631e-02      140.0379982 
 1.666673691e-02      148.2149967 
 1.790332925e-02      155.6213574 
 2.010280393e-02      164.2262044 
 2.047273849e-02      166.4534034 
 2.074592547e-02      168.0534867 
 2.079074157e-02      168.5553766 
 2.081935470e-02      168.7238078 
 2.083967675e-02      168.7920349 
 2.085529127e-02      168.7706837 
 2.086383254e-02      168.7471596 
 2.086425053e-02      168.7209117 
 2.085567407e-02      168.6923243 
 2.083110981e-02      168.6496422 
 2.080890560e-02      168.6232047 
 2.078136466e-02      168.5965841 
 2.075271933e-02      168.5729103 
 2.072104965e-02      168.5510976 
 2.068892667e-02      168.5304341 
 2.065862810e-02      168.5120118 
 2.062426522e-02       168.494248 
 2.058741467e-02      168.4773678 
 2.051167439e-02      168.4480743 
 2.046377801e-02      168.4365936 
 2.042248421e-02      168.4313719 
 2.033475887e-02      168.4278438 
 2.028626714e-02       168.430378 
 2.021683064e-02      168.4473122 
 2.017270299e-02      168.4650243 
 2.013126713e-02      168.4859861 
 2.007321092e-02      168.5219791 
 2.003671024e-02      168.5492733 
 1.999545120e-02      168.5855123 
 1.993010665e-02      168.6507007 
 1.988976140e-02      168.6960593 
 1.984827720e-02      168.7478468 
 1.977681257e-02      168.8484529 
 1.973862707e-02      168.9063234 
 1.969955118e-02      168.9702593 
 1.966015234e-02      169.0381247 
 1.961529069e-02      169.1189186 
 1.956887399e-02      169.2104566 
 1.952780589e-02      169.2946747 
 1.949270598e-02      169.3692076 
 1.945348279e-02      169.4571489 
 1.941227414e-02      169.5519307 
 1.936958680e-02      169.6562602 
 1.933078451e-02       169.754512 
 1.929423367e-02      169.8500377 
 1.925820369e-02      169.9441267 
 1.918942878e-02      170.1336171 
 1.914281706e-02      170.2679392 
 1.906904299e-02      170.4907565 
 1.902864523e-02      170.6184069 
 1.897509637e-02      170.7897908 
 1.894356460e-02      170.9171452 
 1.886169834e-02       171.168787 
 1.879107017e-02      171.4162132 
 1.874271129e-02      171.5987443 
 1.870373886e-02      171.7511955 
 1.866253212e-02      171.9154376 
 1.862404245e-02      172.0744277 
 1.856037401e-02      172.3408403 
 1.848414172e-02      172.6684693 
 1.844924252e-02      172.8235573 
 1.841564075e-02      172.9740161 
 1.838285036e-02      173.1264424 
 1.834725564e-02      173.2983824 
 1.831467380e-02      173.4564312 
 1.828047700e-02      173.6240797 
 1.823849708e-02      173.8382706 
 1.817062863e-02      174.1962092 
 1.813612816e-02      174.3829243 
 1.810185000e-02      174.5713877 
 1.806984828e-02      174.7535541 
 1.804001810e-02      174.9622472 
 1.800271822e-02      175.1444721 
 1.794486565e-02      175.4934224 
 1.791238821e-02      175.6941454 
 1.788160934e-02      175.8893143 
 1.784974884e-02      176.0955301 
 1.782009591e-02      176.2920123 
 1.778747091e-02      176.5133498 
 1.775664525e-02      176.7258198 
 1.772655475e-02       176.939505 
 1.768097049e-02      177.2715335 
 1.765148681e-02      177.4930534 
 1.762408591e-02      177.7037591 
 1.759682648e-02      177.9163507 
 1.757104460e-02      178.1227998 
 1.754684981e-02       178.318996 
 1.752190803e-02       178.526367 
 1.749590536e-02      178.7455827 
 1.744466696e-02      179.1969114 
 1.741750967e-02       179.444144 
 1.739042618e-02      179.6950547 
 1.734025283e-02      180.1822908 
 1.731690788e-02      180.4136076 
 1.727812198e-02      180.8175063 
 1.723956643e-02      181.2366823 
 1.721712145e-02      181.4911476 
 1.719700244e-02      181.7232428 
 1.717756373e-02      181.9556542 
 1.715928241e-02      182.1762953 
 1.713856552e-02      182.4385828 
 1.711901284e-02      182.6887725 
 1.709447592e-02       183.017132 
 1.706604187e-02      183.4130591 
 1.704860170e-02      183.6680063 
 1.701706211e-02      184.1468227 
 1.699998276e-02      184.4214359 
 1.698252980e-02      184.7108925 
 1.696402728e-02      185.0289377 
 1.693437965e-02      185.5758429 
 1.691780171e-02      185.9011181 
 1.690480284e-02      186.1716488 
 1.689031543e-02      186.4852452 
 1.687641148e-02       186.803283 
 1.686407075e-02      187.1057599 
 1.684705657e-02      187.5527368 
 1.683833790e-02      187.8029959 
 1.682979987e-02      188.0548959 
 1.681739593e-02      188.4528925 
 1.680375229e-02      188.9491998 
 1.679176939e-02      189.4516958 
 1.678104363e-02      189.9866713 
 1.677561209e-02      190.3057719 
 1.677091716e-02      190.6270931 
 1.676699817e-02      190.9482561 
 1.676228695e-02      191.4644724 
 1.676004522e-02      191.8641578 
 1.677133050e-02       192.191134 
 1.675847075e-02      192.5182882 
 1.675972643e-02      193.0707284 
 1.676274584e-02      193.5392151 
 1.676568826e-02      193.8706167 
 1.677000081e-02      194.2021776 
 1.677396627e-02       194.551326 
 1.678252418e-02      195.0700623 
 1.678879267e-02      195.3904229 
 1.679529495e-02      195.6792886 
 1.680207121e-02      195.9696743 
 1.681033118e-02      196.2922196 
 1.682063060e-02      196.6464449 
 1.683720002e-02       197.169118 