OceanMesh2D                                                                     
Run_001                                                                         
1 1000 0 1000 1000    	 ! NFOVER                                                
0        	 ! NABOUT                                                             
500        	 ! NSCREEN                                                         
0        	 ! IHOT                                                               
20         	 ! ICS                                                              
511114          	 ! IM                                                          
1            	 ! NOLIBF                                                         
2            	 ! NOLIFA                                                         
1           	 ! NOLICA                                                          
1           	 ! NOLICAT                                                         
2           	 ! NWP                                                             
mannings_n_at_sea_floor                                                         
primitive_weighting_in_continuity_equation                                      
1   	 	 ! NCOR                                                                  
1   	 	 ! NTIP                                                                  
20   	 	 ! NWS                                                                  
1    	 	 ! NRAMP                                                                
9.810000    	 ! G                                                               
-3   	 	 ! TAU0                                                                 
0.50    	 	 ! DTDP                                                              
0  	 	 ! STATIM                                                                 
0   	 	 ! REFTIM                                                                
 2017 08 23 12 1 0.9 1 1200                                                     
8   	 	 ! RNDY                                                                  
1   	 	 ! DRAMP                                                                 
0 1 0   	  ! A00, B00, C00                                                      
0.1 0 0 0.01    	 ! H0, 2*dummy, VELMIN                                         
-81.911787 32.663147  	 	 ! SLAM0, SFEA0                                        
0.0     	 ! CF , default: 0.0005                                                
-0.05     	 	 ! ELSM                                                            
0.000000   	 ! CORI                                                             
8   	 	 ! NTIF                                                                  
Q1                                                                              
0.019303  6.495854130e-05 0.695000 0.861280 189.850500   	 !  TPK, AMIGT, ETRF, 
O1                                                                              
0.100818  6.759774407e-05 0.695000 0.859103 275.671856   	 !  TPK, AMIGT, ETRF, 
P1                                                                              
0.047037  7.252294576e-05 0.706000 1.010728 297.582690   	 !  TPK, AMIGT, ETRF, 
K1                                                                              
0.141909  7.292115851e-05 0.736000 0.911112 55.973189   	 !  TPK, AMIGT, ETRF, F
N2                                                                              
0.046510  1.378796998e-04 0.693000 1.031888 242.693075   	 !  TPK, AMIGT, ETRF, 
M2                                                                              
0.242922  1.405189028e-04 0.693000 1.030624 328.651200   	 !  TPK, AMIGT, ETRF, 
S2                                                                              
0.113308  1.454441043e-04 0.693000 0.998262 0.075607   	 !  TPK, AMIGT, ETRF, FF
K2                                                                              
0.030779  1.458423170e-04 0.693000 0.792529 292.765983   	 !  TPK, AMIGT, ETRF, 
8   	 	 ! NBFR                                                                  
Q1                                                                              
 6.495854130e-05 0.861280 189.850500                                            
O1                                                                              
 6.759774407e-05 0.859103 275.671856                                            
P1                                                                              
 7.252294576e-05 1.010728 297.582690                                            
K1                                                                              
 7.292115851e-05 0.911112 55.973189                                             
N2                                                                              
 1.378796998e-04 1.031888 242.693075                                            
M2                                                                              
 1.405189028e-04 1.030624 328.651200                                            
S2                                                                              
 1.454441043e-04 0.998262 0.075607                                              
K2                                                                              
 1.458423170e-04 0.792529 292.765983                                            
Q1                                                                              
O1                                                                              
P1                                                                              
K1                                                                              
N2                                                                              
M2                                                                              
S2                                                                              
K2                                                                              
90   	 	 ! ANGINN                                                               
           1  0.000000000000000E+000   75.0000000000000             7200
       0              ! NSTAE                                                   
           0   15.0000000000000        75.0000000000000               60
       0   	 	 ! NSTAV                                                          
           0  0.000000000000000E+000  0.000000000000000E+000           0
       0    	 	 ! NSTAM                                                         
           3  0.000000000000000E+000   75.0000000000000            1000
           0  0.000000000000000E+000   75.0000000000000             7200
           0  0.000000000000000E+000   33.0000000000000              600
0  	 	 ! NFREQ                                                                  
15 75 600 0  	 ! THAS, THAF, NHAINC, FMV                                        
0 0 0 0   	 ! NHASE, NHASV, NHAGE, NHAGV                                        
0 0 	  ! NHSTAR, NHSINC                                                         
1 0   1.000000000e-10 25  	 ! ITITER, ISLDIA, CONVCR, ITMAX                     
 OceanMesh2D
 Notre Dame CHL
 OceanMesh2D
 History: None
 https://github.com/CHLNDDEV/OceanMesh2D/
 Comments: None
 Host: Name
 Metric, MSL
 name@instit.edu
 2012-08-01 00:00
 ! -- Begin Met Control Namelist --
 &metControl 
     WindDragLimit=  2.000000000000000E-003 ,
     DragLawString='default',
     outputWindDrag= F ,
     rhoAir=   1.29300000000000      ,
     invertedBarometerOnElevationBoundary= F ,
     nPowellSearchDomains=          -1
 /
 ! -- End Met Control Namelist --
