OceanMesh2D                                                                     
Run_001                                                                         
1 1000 0 1000 10000         	 ! NFOVER                                          
0        	 ! NABOUT                                                             
1800        	 ! NSCREEN                                                         
0        	 ! IHOT                                                               
2        	 ! ICS                                                                
511115        	 ! IM                                                            
1        	 ! NOLIBF                                                             
2        	 ! NOLIFA                                                             
0        	 ! NOLICA                                                             
0        	 ! NOLICAT                                                            
0        	 ! NWP                                                                
1   	 	 ! NCOR                                                                  
1   	 	 ! NTIP                                                                  
0   	 	 ! NWS                                                                   
0   	 	 ! NRAMP                                                                 
9.810000   	 ! G                                                                
-1   	 	 ! TAU0                                                                 
1  	 	 ! DTDP                                                                   
0  	 	 ! STATIM                                                                 
0  	 	 ! REFTIM                                                                 
1.00   	 	 ! RNDY                                                                  
0  	 	 ! DRAMP                                                                  
0 1 0  	 ! A00, B00, C00                                                        
0.1 0 0 0.01    	 ! H0, 2*dummy, VELMIN                                         
-90.625542 29.227736  	 	 ! SLAM0, SFEA0                                        
0.002500     	 ! CF                                                             
-0.050000     	 ! ELSM                                                          
0.000000   	 ! CORI                                                             
8   	 	 ! NTIF                                                                  
Q1                                                                              
0.019303  6.495854130e-05 0.695000 1.153328 2.592955   	 !  TPK, AMIGT, ETRF, FF
O1                                                                              
0.100818  6.759774407e-05 0.695000 1.150540 153.727652   	 !  TPK, AMIGT, ETRF, 
P1                                                                              
0.047037  7.252294576e-05 0.706000 0.993829 285.404811   	 !  TPK, AMIGT, ETRF, 
K1                                                                              
0.141909  7.292115851e-05 0.736000 1.089095 80.401874   	 !  TPK, AMIGT, ETRF, F
N2                                                                              
0.046510  1.378796998e-04 0.693000 0.974235 85.208263   	 !  TPK, AMIGT, ETRF, F
M2                                                                              
0.242922  1.405189028e-04 0.693000 0.973028 236.427878   	 !  TPK, AMIGT, ETRF, 
S2                                                                              
0.113308  1.454441043e-04 0.693000 1.001642 359.914967   	 !  TPK, AMIGT, ETRF, 
K2                                                                              
0.030779  1.458423170e-04 0.693000 1.231645 341.333428   	 !  TPK, AMIGT, ETRF, 
8   	 	 ! NBFR                                                                  
Q1                                                                              
 6.495854130e-05 1.153328 2.592955                                              
O1                                                                              
 6.759774407e-05 1.150540 153.727652                                            
P1                                                                              
 7.252294576e-05 0.993829 285.404811                                            
K1                                                                              
 7.292115851e-05 1.089095 80.401874                                             
N2                                                                              
 1.378796998e-04 0.974235 85.208263                                             
M2                                                                              
 1.405189028e-04 0.973028 236.427878                                            
S2                                                                              
 1.454441043e-04 1.001642 359.914967                                            
K2                                                                              
 1.458423170e-04 1.231645 341.333428                                            
Q1                                                                              
O1                                                                              
P1                                                                              
K1                                                                              
N2                                                                              
M2                                                                              
S2                                                                              
K2                                                                              
90   	 	 ! ANGINN                                                               
          -1  0.000000000000000E+000   75.0000000000000             1000
       1              ! NSTAE                                                   
-95.3567 29.2967 ! SSS-TX-BRA-011 ! USGS ! Deployable                           
           0  0.000000000000000E+000  0.000000000000000E+000           0
       0   	 	 ! NSTAV                                                          
          -3  0.000000000000000E+000   30.0000000000000             100
           0  0.000000000000000E+000  0.000000000000000E+000           0
8  	 	 ! NFREQ                                                                  
Q1        
 6.495854130e-05 1.153328 2.592955                                              
O1        
 6.759774407e-05 1.150540 153.727652                                            
P1        
 7.252294576e-05 0.993829 285.404811                                            
K1        
 7.292115851e-05 1.089095 80.401874                                             
N2        
 1.378796998e-04 0.974235 85.208263                                             
M2        
 1.405189028e-04 0.973028 236.427878                                            
S2        
 1.454441043e-04 1.001642 359.914967                                            
K2        
 1.458423170e-04 1.231645 341.333428                                            
0 0 0 0  	 ! THAS, THAF, NHAINC, FMV                                            
0 0 0 0   	 ! NHASE, NHASV, NHAGE, NHAGV                                        
0 0  	 ! NHSTAR, NHSINC                                                         
1 0   1.000000000e-10 25  	 ! ITITER, ISLDIA, CONVCR, ITMAX                     
 OceanMesh2D
 Affiliation
 Made by OceanMesh2D
 History: None
 https://github.com/CHLNDDEV/OceanMesh2D/
 Comments: None
 Host: Name
 Metric, Datum
 name@instit.edu
 2008-09-05 12:00:00 UTC
 ! -- Begin Met Control Namelist --
 &metControl 
     WindDragLimit=  2.500000000000000E-003 ,
     DragLawString='default',
     outputWindDrag= F ,
     rhoAir=   1.29300000000000      ,
     invertedBarometerOnElevationBoundary= F ,
     nPowellSearchDomains=          -1
 /
 ! -- End Met Control Namelist --
